136099319
  -OEChem-01122508253D

 33 35  0     0  0  0  0  0  0999 V2000
    5.3436    1.7070    0.5500 O   0  0  0  0  0  0  0  0  0  0  0  0
    1.2508   -2.9496   -0.6257 O   0  0  0  0  0  0  0  0  0  0  0  0
   -5.1796   -0.8947    0.6715 O   0  0  0  0  0  0  0  0  0  0  0  0
   -0.6611   -0.0648   -0.3790 N   0  0  0  0  0  0  0  0  0  0  0  0
   -4.4764    1.2223    0.0420 N   0  0  0  0  0  0  0  0  0  0  0  0
   -2.6552   -1.8754    0.4241 N   0  0  0  0  0  0  0  0  0  0  0  0
   -2.2256    1.6765   -0.4911 N   0  0  0  0  0  0  0  0  0  0  0  0
   -3.8334    3.3819   -0.5872 N   0  0  0  0  0  0  0  0  0  0  0  0
    2.1403   -0.8600   -0.0656 C   0  0  0  0  0  0  0  0  0  0  0  0
   -0.3935   -1.3635   -0.1248 C   0  0  0  0  0  0  0  0  0  0  0  0
   -2.9104   -0.5778    0.1678 C   0  0  0  0  0  0  0  0  0  0  0  0
   -1.9432    0.3269   -0.2279 C   0  0  0  0  0  0  0  0  0  0  0  0
    0.9851   -1.7843   -0.2884 C   0  0  0  0  0  0  0  0  0  0  0  0
   -4.2955   -0.1225    0.3236 C   0  0  0  0  0  0  0  0  0  0  0  0
    2.0337    0.1793    0.8586 C   0  0  0  0  0  0  0  0  0  0  0  0
    3.3235   -1.0368   -0.7829 C   0  0  0  0  0  0  0  0  0  0  0  0
   -1.3717   -2.2516    0.2690 C   0  0  0  0  0  0  0  0  0  0  0  0
    4.2932    0.8651    0.3479 C   0  0  0  0  0  0  0  0  0  0  0  0
   -3.4574    2.0854   -0.3537 C   0  0  0  0  0  0  0  0  0  0  0  0
    3.1101    1.0419    1.0654 C   0  0  0  0  0  0  0  0  0  0  0  0
    4.3999   -0.1742   -0.5763 C   0  0  0  0  0  0  0  0  0  0  0  0
    6.5229    1.4690   -0.2172 C   0  0  0  0  0  0  0  0  0  0  0  0
    1.1392    0.3263    1.4570 H   0  0  0  0  0  0  0  0  0  0  0  0
    3.4228   -1.8376   -1.5111 H   0  0  0  0  0  0  0  0  0  0  0  0
   -1.1662   -3.2949    0.4785 H   0  0  0  0  0  0  0  0  0  0  0  0
   -5.4143    1.6022    0.1303 H   0  0  0  0  0  0  0  0  0  0  0  0
    3.0239    1.8456    1.7916 H   0  0  0  0  0  0  0  0  0  0  0  0
    5.2883   -0.3676   -1.1677 H   0  0  0  0  0  0  0  0  0  0  0  0
   -3.1581    4.0800   -0.8792 H   0  0  0  0  0  0  0  0  0  0  0  0
   -4.7956    3.6820   -0.4754 H   0  0  0  0  0  0  0  0  0  0  0  0
    7.2549    2.2306    0.0707 H   0  0  0  0  0  0  0  0  0  0  0  0
    6.3373    1.5934   -1.2895 H   0  0  0  0  0  0  0  0  0  0  0  0
    6.9658    0.4951    0.0173 H   0  0  0  0  0  0  0  0  0  0  0  0
  1 18  1  0  0  0  0
  1 22  1  0  0  0  0
  2 13  2  0  0  0  0
  3 14  2  0  0  0  0
  4 10  1  0  0  0  0
  4 12  2  0  0  0  0
  5 14  1  0  0  0  0
  5 19  1  0  0  0  0
  5 26  1  0  0  0  0
  6 11  2  0  0  0  0
  6 17  1  0  0  0  0
  7 12  1  0  0  0  0
  7 19  2  0  0  0  0
  8 19  1  0  0  0  0
  8 29  1  0  0  0  0
  8 30  1  0  0  0  0
  9 13  1  0  0  0  0
  9 15  2  0  0  0  0
  9 16  1  0  0  0  0
 10 13  1  0  0  0  0
 10 17  2  0  0  0  0
 11 12  1  0  0  0  0
 11 14  1  0  0  0  0
 15 20  1  0  0  0  0
 15 23  1  0  0  0  0
 16 21  2  0  0  0  0
 16 24  1  0  0  0  0
 17 25  1  0  0  0  0
 18 20  2  0  0  0  0
 18 21  1  0  0  0  0
 20 27  1  0  0  0  0
 21 28  1  0  0  0  0
 22 31  1  0  0  0  0
 22 32  1  0  0  0  0
 22 33  1  0  0  0  0
M  END
> <PUBCHEM_COMPOUND_CID>
136099319

> <PUBCHEM_CONFORMER_RMSD>
0.6

> <PUBCHEM_CONFORMER_DIVERSEORDER>
1
3
13
16
11
17
5
18
6
7
2
8
15
10
12
4
14
9

> <PUBCHEM_MMFF94_PARTIAL_CHARGES>
30
1 -0.36
10 0.4
11 0.4
12 0.49
13 0.4
14 0.54
15 -0.15
16 -0.15
17 0.16
18 0.08
19 0.56
2 -0.57
20 -0.15
21 -0.15
22 0.28
23 0.15
24 0.15
25 0.15
26 0.37
27 0.15
28 0.15
29 0.4
3 -0.57
30 0.4
4 -0.62
5 -0.49
6 -0.62
7 -0.63
8 -0.85
9 0.09

> <PUBCHEM_EFFECTIVE_ROTOR_COUNT>
3

> <PUBCHEM_PHARMACOPHORE_FEATURES>
10
1 1 acceptor
1 2 acceptor
1 3 acceptor
1 5 donor
1 6 acceptor
1 8 donor
3 4 7 12 cation
6 4 6 10 11 12 17 rings
6 5 7 11 12 14 19 rings
6 9 15 16 18 20 21 rings

> <PUBCHEM_HEAVY_ATOM_COUNT>
22

> <PUBCHEM_ATOM_DEF_STEREO_COUNT>
0

> <PUBCHEM_ATOM_UDEF_STEREO_COUNT>
0

> <PUBCHEM_BOND_DEF_STEREO_COUNT>
0

> <PUBCHEM_BOND_UDEF_STEREO_COUNT>
0

> <PUBCHEM_ISOTOPIC_ATOM_COUNT>
0

> <PUBCHEM_COMPONENT_COUNT>
1

> <PUBCHEM_CACTVS_TAUTO_COUNT>
-1

> <PUBCHEM_CONFORMER_ID>
081CB5F700000001

> <PUBCHEM_MMFF94_ENERGY>
75.8237

> <PUBCHEM_FEATURE_SELFOVERLAP>
50.837

> <PUBCHEM_SHAPE_FINGERPRINT>
10165383 225 18201445817055268194
10319926 262 18335128762056816370
10411042 1 17689156033915529403
10498660 4 18338234864682140220
10608611 8 18339641135969783207
10670039 82 18187940456245488156
11595378 159 17458338598653322001
12107183 9 17900244322390715690
12236239 1 17240760709656907288
12363563 72 8934715643192359964
12390115 104 18341907246646420217
12403259 415 18339368469712319607
12596602 18 16950279654345925424
12730499 353 18272942630415192326
12769317 202 18131625678104428496
12916748 109 18335424586255070066
13140716 1 17973731560622686931
13402501 40 18413670227207454776
13965767 371 17316476198059647525
14341114 328 16950287338480092172
14739800 52 18263065722021196384
14848178 96 18051122601988838453
15196674 1 18410855421478730882
19784866 170 18409451413860425107
20281389 69 18409164450828191800
20510252 161 18411984620579866169
20645477 56 18343303707870134442
20645477 70 17346609543249408654
21033648 29 18272640268943846000
21279426 13 18272095951291368350
21315764 268 18336258029181153604
221357 26 17917993862666735848
23227448 37 18342454893435791031
23402655 69 17703792531061494758
23559900 14 17979633437929193207
2838139 119 18342729759154412012
2916195 48 18342171207041676072
3524813 1 18272082829174723088
3545911 37 18343305898683029624
5104073 3 18189621553341441131
633830 44 18126277550314645861
6442390 28 18409732863320799462
7808743 9 18337388344219086752
9981440 41 18260831496707706419

> <PUBCHEM_SHAPE_MULTIPOLES>
410.24
12.19
2.8
0.83
7.72
0.48
0.06
7.68
0.51
-1.82
-0.46
0.32
0.05
1.35

> <PUBCHEM_SHAPE_SELFOVERLAP>
906.349

> <PUBCHEM_SHAPE_VOLUME>
217.8

> <PUBCHEM_COORDINATE_TYPE>
2
5
10

$$$$
