135460042
  -OEChem-01122508203D

 20 21  0     0  0  0  0  0  0999 V2000
   -2.3743   -2.4067   -0.0009 O   0  0  0  0  0  0  0  0  0  0  0  0
    3.4234    1.7117   -0.0003 O   0  0  0  0  0  0  0  0  0  0  0  0
    4.2731   -0.3965   -0.0010 O   0  0  0  0  0  0  0  0  0  0  0  0
   -2.9319   -0.1568   -0.0001 N   0  0  0  0  0  0  0  0  0  0  0  0
   -1.2864    1.5311    0.0002 N   0  0  0  0  0  0  0  0  0  0  0  0
    0.9734    0.9102    0.0005 N   0  0  0  0  0  0  0  0  0  0  0  0
    0.2797   -1.8135    0.0004 N   0  0  0  0  0  0  0  0  0  0  0  0
   -3.5631    2.0959   -0.0005 N   0  0  0  0  0  0  0  0  0  0  0  0
   -0.6389   -0.8281    0.0002 C   0  0  0  0  0  0  0  0  0  0  0  0
   -0.3168    0.5160    0.0002 C   0  0  0  0  0  0  0  0  0  0  0  0
   -2.0502   -1.2260    0.0002 C   0  0  0  0  0  0  0  0  0  0  0  0
   -2.5436    1.1808    0.0000 C   0  0  0  0  0  0  0  0  0  0  0  0
    1.9030   -0.0690    0.0006 C   0  0  0  0  0  0  0  0  0  0  0  0
    1.5626   -1.4049    0.0005 C   0  0  0  0  0  0  0  0  0  0  0  0
    3.2901    0.3556   -0.0001 C   0  0  0  0  0  0  0  0  0  0  0  0
   -3.9264   -0.3637   -0.0005 H   0  0  0  0  0  0  0  0  0  0  0  0
    2.3009   -2.1982    0.0004 H   0  0  0  0  0  0  0  0  0  0  0  0
   -3.3743    3.0924   -0.0006 H   0  0  0  0  0  0  0  0  0  0  0  0
   -4.5347    1.8055   -0.0007 H   0  0  0  0  0  0  0  0  0  0  0  0
    4.3655    1.9853   -0.0010 H   0  0  0  0  0  0  0  0  0  0  0  0
  1 11  2  0  0  0  0
  2 15  1  0  0  0  0
  2 20  1  0  0  0  0
  3 15  2  0  0  0  0
  4 11  1  0  0  0  0
  4 12  1  0  0  0  0
  4 16  1  0  0  0  0
  5 10  1  0  0  0  0
  5 12  2  0  0  0  0
  6 10  2  0  0  0  0
  6 13  1  0  0  0  0
  7  9  2  0  0  0  0
  7 14  1  0  0  0  0
  8 12  1  0  0  0  0
  8 18  1  0  0  0  0
  8 19  1  0  0  0  0
  9 10  1  0  0  0  0
  9 11  1  0  0  0  0
 13 14  2  0  0  0  0
 13 15  1  0  0  0  0
 14 17  1  0  0  0  0
M  END
> <PUBCHEM_COMPOUND_CID>
135460042

> <PUBCHEM_CONFORMER_RMSD>
0.4

> <PUBCHEM_CONFORMER_DIVERSEORDER>
1
2
3

> <PUBCHEM_MMFF94_PARTIAL_CHARGES>
20
1 -0.57
10 0.49
11 0.54
12 0.56
13 0.4
14 0.16
15 0.63
16 0.37
17 0.15
18 0.4
19 0.4
2 -0.65
20 0.5
3 -0.57
4 -0.49
5 -0.63
6 -0.62
7 -0.62
8 -0.85
9 0.4

> <PUBCHEM_EFFECTIVE_ROTOR_COUNT>
1

> <PUBCHEM_PHARMACOPHORE_FEATURES>
10
1 1 acceptor
1 2 acceptor
1 3 acceptor
1 4 donor
1 7 acceptor
1 8 donor
3 2 3 15 anion
3 5 6 10 cation
6 4 5 9 10 11 12 rings
6 6 7 9 10 13 14 rings

> <PUBCHEM_HEAVY_ATOM_COUNT>
15

> <PUBCHEM_ATOM_DEF_STEREO_COUNT>
0

> <PUBCHEM_ATOM_UDEF_STEREO_COUNT>
0

> <PUBCHEM_BOND_DEF_STEREO_COUNT>
0

> <PUBCHEM_BOND_UDEF_STEREO_COUNT>
0

> <PUBCHEM_ISOTOPIC_ATOM_COUNT>
0

> <PUBCHEM_COMPONENT_COUNT>
1

> <PUBCHEM_CACTVS_TAUTO_COUNT>
-1

> <PUBCHEM_CONFORMER_ID>
0812F4CA00000001

> <PUBCHEM_MMFF94_ENERGY>
39.9959

> <PUBCHEM_FEATURE_SELFOVERLAP>
50.894

> <PUBCHEM_SHAPE_FINGERPRINT>
10608611 8 18413105082704976200
10967382 1 18266458706902433028
11132069 177 18410568492226110704
12932764 1 17385995153267228492
13380535 21 18339933618662830383
13380535 76 18340484461251169919
14325111 11 18410856585810643392
14614273 12 18187636994914145527
14897335 6 18338794516210908871
15219456 202 18200882777060676758
15442244 35 18265329517499294578
15775835 57 18335423413386236752
16945 1 18338516326741826247
1741750 31 18271527498704151417
18186145 218 18200037213858696596
20510252 161 18270684297607486472
20871998 184 18200880694070162023
21267235 1 18409738364936379226
21501502 16 18410004408084974442
23402539 116 18342446028501998772
23402655 69 18198328573538342813
23463225 33 18334854992156118282
23559900 14 18272368643049285352
2748010 2 18339932532057314142
335352 9 18194401096080353182
5104073 3 18410291432697236288
528886 8 18411131407497799914
53812653 166 18342453712367380696
6333449 129 18411698781489069085
69090 78 18338794525048821765
7364860 26 18124596375535104838
9709674 26 18342461421797078662

> <PUBCHEM_SHAPE_MULTIPOLES>
266.18
6.11
2.15
0.57
3.06
0.29
0
-2.02
0
-1.39
0
0
0.01
0

> <PUBCHEM_SHAPE_SELFOVERLAP>
584.492

> <PUBCHEM_SHAPE_VOLUME>
141.3

> <PUBCHEM_COORDINATE_TYPE>
2
5
10

$$$$
