135894425
  -OEChem-01122508243D

 22 23  0     0  0  0  0  0  0999 V2000
   -2.4071   -2.3892   -0.0008 O   0  0  0  0  0  0  0  0  0  0  0  0
    4.2116   -0.5110   -0.0004 O   0  0  0  0  0  0  0  0  0  0  0  0
   -2.9448   -0.1345    0.0000 N   0  0  0  0  0  0  0  0  0  0  0  0
    0.9698    0.8979    0.0003 N   0  0  0  0  0  0  0  0  0  0  0  0
   -1.2845    1.5388    0.0002 N   0  0  0  0  0  0  0  0  0  0  0  0
    0.2520   -1.8195    0.0003 N   0  0  0  0  0  0  0  0  0  0  0  0
   -3.5561    2.1237   -0.0003 N   0  0  0  0  0  0  0  0  0  0  0  0
   -0.6578   -0.8260    0.0002 C   0  0  0  0  0  0  0  0  0  0  0  0
   -0.3239    0.5152    0.0002 C   0  0  0  0  0  0  0  0  0  0  0  0
   -2.0726   -1.2114    0.0002 C   0  0  0  0  0  0  0  0  0  0  0  0
    1.8906   -0.0894    0.0004 C   0  0  0  0  0  0  0  0  0  0  0  0
   -2.5448    1.1997    0.0001 C   0  0  0  0  0  0  0  0  0  0  0  0
    1.5385   -1.4222    0.0003 C   0  0  0  0  0  0  0  0  0  0  0  0
    3.2815    0.3229   -0.0004 C   0  0  0  0  0  0  0  0  0  0  0  0
    3.6477    1.8051   -0.0003 C   0  0  0  0  0  0  0  0  0  0  0  0
   -3.9411   -0.3325   -0.0004 H   0  0  0  0  0  0  0  0  0  0  0  0
    2.2673   -2.2243    0.0002 H   0  0  0  0  0  0  0  0  0  0  0  0
    3.2543    2.2833    0.9004 H   0  0  0  0  0  0  0  0  0  0  0  0
    3.2484    2.2851   -0.8975 H   0  0  0  0  0  0  0  0  0  0  0  0
    4.7365    1.9118   -0.0039 H   0  0  0  0  0  0  0  0  0  0  0  0
   -3.3585    3.1185   -0.0004 H   0  0  0  0  0  0  0  0  0  0  0  0
   -4.5302    1.8419   -0.0006 H   0  0  0  0  0  0  0  0  0  0  0  0
  1 10  2  0  0  0  0
  2 14  2  0  0  0  0
  3 10  1  0  0  0  0
  3 12  1  0  0  0  0
  3 16  1  0  0  0  0
  4  9  2  0  0  0  0
  4 11  1  0  0  0  0
  5  9  1  0  0  0  0
  5 12  2  0  0  0  0
  6  8  2  0  0  0  0
  6 13  1  0  0  0  0
  7 12  1  0  0  0  0
  7 21  1  0  0  0  0
  7 22  1  0  0  0  0
  8  9  1  0  0  0  0
  8 10  1  0  0  0  0
 11 13  2  0  0  0  0
 11 14  1  0  0  0  0
 13 17  1  0  0  0  0
 14 15  1  0  0  0  0
 15 18  1  0  0  0  0
 15 19  1  0  0  0  0
 15 20  1  0  0  0  0
M  END
> <PUBCHEM_COMPOUND_CID>
135894425

> <PUBCHEM_CONFORMER_RMSD>
0.4

> <PUBCHEM_CONFORMER_DIVERSEORDER>
1
2
5
4
3

> <PUBCHEM_MMFF94_PARTIAL_CHARGES>
19
1 -0.57
10 0.54
11 0.4
12 0.56
13 0.16
14 0.42
15 0.06
16 0.37
17 0.15
2 -0.57
21 0.4
22 0.4
3 -0.49
4 -0.62
5 -0.63
6 -0.62
7 -0.85
8 0.4
9 0.49

> <PUBCHEM_EFFECTIVE_ROTOR_COUNT>
1

> <PUBCHEM_PHARMACOPHORE_FEATURES>
8
1 1 acceptor
1 2 acceptor
1 3 donor
1 6 acceptor
1 7 donor
3 4 5 9 cation
6 3 5 8 9 10 12 rings
6 4 6 8 9 11 13 rings

> <PUBCHEM_HEAVY_ATOM_COUNT>
15

> <PUBCHEM_ATOM_DEF_STEREO_COUNT>
0

> <PUBCHEM_ATOM_UDEF_STEREO_COUNT>
0

> <PUBCHEM_BOND_DEF_STEREO_COUNT>
0

> <PUBCHEM_BOND_UDEF_STEREO_COUNT>
0

> <PUBCHEM_ISOTOPIC_ATOM_COUNT>
0

> <PUBCHEM_COMPONENT_COUNT>
1

> <PUBCHEM_CACTVS_TAUTO_COUNT>
-1

> <PUBCHEM_CONFORMER_ID>
0819959900000001

> <PUBCHEM_MMFF94_ENERGY>
38.6742

> <PUBCHEM_FEATURE_SELFOVERLAP>
40.687

> <PUBCHEM_SHAPE_FINGERPRINT>
10608611 8 18412824702966018520
10967382 1 18266459793523871172
11132069 177 18410287017254700776
12932764 1 17385995149003942180
13380535 21 18340213994122625519
13380535 76 18340484456956209111
13897977 150 18410853226787586852
14325111 11 18410856585837010656
14614273 12 18187635895386667511
14897335 6 18338513036928687909
15196674 1 18410575106164328132
15219456 202 18200882777071226262
15442244 35 18337105649503384042
15775835 57 18335423413396792760
16945 1 18338517417652969927
1741750 31 18271527498693640889
18186145 218 18131082549451510224
20510252 161 18270403922168770856
20871998 184 18200880694059606023
21267235 1 18410019839971112138
21501502 16 18410004412416832538
23402539 116 18271514312938476300
23402655 69 18198328573543624061
23463225 33 18334854992156111778
23559900 14 18272087163745952418
2748010 2 18411989039537048990
335352 9 18266458698734498526
5104073 3 18410009953362313272
528886 8 18411131403197557866
53812653 166 18342453712393741464
6333449 129 18411698777188827037
69090 78 18338794525027735757
7364860 26 18124595276028751806
9709674 26 18342461421844551414

> <PUBCHEM_SHAPE_MULTIPOLES>
272.05
6.34
2.23
0.57
3.18
0.08
0
-2.19
0
-1.27
0
0.03
0
0

> <PUBCHEM_SHAPE_SELFOVERLAP>
591.437

> <PUBCHEM_SHAPE_VOLUME>
146.6

> <PUBCHEM_COORDINATE_TYPE>
2
5
10

$$$$
