136025898
  -OEChem-01122508213D

 21 22  0     0  0  0  0  0  0999 V2000
   -2.3789   -2.4034   -0.0009 O   0  0  0  0  0  0  0  0  0  0  0  0
    4.2189   -0.4631   -0.0128 O   0  0  0  0  0  0  0  0  0  0  0  0
   -2.9372   -0.1537   -0.0013 N   0  0  0  0  0  0  0  0  0  0  0  0
   -1.2922    1.5346   -0.0002 N   0  0  0  0  0  0  0  0  0  0  0  0
    0.9678    0.9144    0.0020 N   0  0  0  0  0  0  0  0  0  0  0  0
    0.2749   -1.8094    0.0022 N   0  0  0  0  0  0  0  0  0  0  0  0
   -3.5691    2.0988   -0.0028 N   0  0  0  0  0  0  0  0  0  0  0  0
    3.5466    1.7292    0.0033 N   0  0  0  0  0  0  0  0  0  0  0  0
   -0.6440   -0.8243    0.0011 C   0  0  0  0  0  0  0  0  0  0  0  0
   -0.3223    0.5199    0.0009 C   0  0  0  0  0  0  0  0  0  0  0  0
   -2.0552   -1.2226    0.0001 C   0  0  0  0  0  0  0  0  0  0  0  0
   -2.5493    1.1840   -0.0013 C   0  0  0  0  0  0  0  0  0  0  0  0
    1.8977   -0.0644    0.0032 C   0  0  0  0  0  0  0  0  0  0  0  0
    1.5577   -1.4004    0.0032 C   0  0  0  0  0  0  0  0  0  0  0  0
    3.2847    0.3605    0.0033 C   0  0  0  0  0  0  0  0  0  0  0  0
   -3.9316   -0.3609   -0.0024 H   0  0  0  0  0  0  0  0  0  0  0  0
    2.2937   -2.1958    0.0041 H   0  0  0  0  0  0  0  0  0  0  0  0
   -3.3806    3.0953   -0.0031 H   0  0  0  0  0  0  0  0  0  0  0  0
   -4.5406    1.8081   -0.0037 H   0  0  0  0  0  0  0  0  0  0  0  0
    2.8032    2.4203    0.0089 H   0  0  0  0  0  0  0  0  0  0  0  0
    4.4994    2.0780   -0.0028 H   0  0  0  0  0  0  0  0  0  0  0  0
  1 11  2  0  0  0  0
  2 15  2  0  0  0  0
  3 11  1  0  0  0  0
  3 12  1  0  0  0  0
  3 16  1  0  0  0  0
  4 10  1  0  0  0  0
  4 12  2  0  0  0  0
  5 10  2  0  0  0  0
  5 13  1  0  0  0  0
  6  9  2  0  0  0  0
  6 14  1  0  0  0  0
  7 12  1  0  0  0  0
  7 18  1  0  0  0  0
  7 19  1  0  0  0  0
  8 15  1  0  0  0  0
  8 20  1  0  0  0  0
  8 21  1  0  0  0  0
  9 10  1  0  0  0  0
  9 11  1  0  0  0  0
 13 14  2  0  0  0  0
 13 15  1  0  0  0  0
 14 17  1  0  0  0  0
M  END
> <PUBCHEM_COMPOUND_CID>
136025898

> <PUBCHEM_CONFORMER_RMSD>
0.4

> <PUBCHEM_CONFORMER_DIVERSEORDER>
1
3
2
4

> <PUBCHEM_MMFF94_PARTIAL_CHARGES>
21
1 -0.57
10 0.49
11 0.54
12 0.56
13 0.4
14 0.16
15 0.54
16 0.37
17 0.15
18 0.4
19 0.4
2 -0.57
20 0.37
21 0.37
3 -0.49
4 -0.63
5 -0.62
6 -0.62
7 -0.85
8 -0.8
9 0.4

> <PUBCHEM_EFFECTIVE_ROTOR_COUNT>
1

> <PUBCHEM_PHARMACOPHORE_FEATURES>
9
1 1 acceptor
1 2 acceptor
1 3 donor
1 6 acceptor
1 7 donor
1 8 donor
3 4 5 10 cation
6 3 4 9 10 11 12 rings
6 5 6 9 10 13 14 rings

> <PUBCHEM_HEAVY_ATOM_COUNT>
15

> <PUBCHEM_ATOM_DEF_STEREO_COUNT>
0

> <PUBCHEM_ATOM_UDEF_STEREO_COUNT>
0

> <PUBCHEM_BOND_DEF_STEREO_COUNT>
0

> <PUBCHEM_BOND_UDEF_STEREO_COUNT>
0

> <PUBCHEM_ISOTOPIC_ATOM_COUNT>
0

> <PUBCHEM_COMPONENT_COUNT>
1

> <PUBCHEM_CACTVS_TAUTO_COUNT>
-1

> <PUBCHEM_CONFORMER_ID>
081B972A00000001

> <PUBCHEM_MMFF94_ENERGY>
39.3314

> <PUBCHEM_FEATURE_SELFOVERLAP>
45.762

> <PUBCHEM_SHAPE_FINGERPRINT>
10608611 8 18412824702950194272
10967382 1 18266740177584176384
11132069 177 18410568492231391952
12932764 1 17385995148982836684
13380535 21 18339932519151202607
13380535 76 18340484456956215607
14325111 11 18410574011327573216
14614273 12 18187635895397242999
14897335 6 18338513036939230919
15219456 202 18200882777065951510
15442244 35 18265329517515112338
15775835 57 18335423413380955512
16945 1 18338516326741832739
1741750 31 18271527498704164409
18186145 218 18059306430374449216
20510252 161 18270403922137122336
20871998 184 18200880694091267519
21267235 1 18410019839955307378
21501502 16 18410004408095517466
23402539 116 18271795787894074972
23402655 69 18198328573543624053
23463225 33 18334854992156124770
23559900 14 18272368643033435112
2748010 2 18411990134706256182
335352 9 18266458694418497182
5104073 3 18410291428412753528
528886 8 18411131403197557866
53812653 166 18342453712372648944
6333449 129 18411698777220469045
69090 78 18338794525038272269
7364860 26 18124595276028758302
9709674 26 18342742896805431342

> <PUBCHEM_SHAPE_MULTIPOLES>
267.07
6.16
2.16
0.57
3.07
0.25
0
-2.08
0.01
-1.35
0
0.01
0.01
0

> <PUBCHEM_SHAPE_SELFOVERLAP>
585.165

> <PUBCHEM_SHAPE_VOLUME>
142.2

> <PUBCHEM_COORDINATE_TYPE>
2
5
10

$$$$
