137240725
  -OEChem-01122508223D

 31 33  0     0  0  0  0  0  0999 V2000
   -4.7997    0.1356    0.9552 O   0  0  0  0  0  0  0  0  0  0  0  0
    1.2690   -3.5867   -0.0901 O   0  0  0  0  0  0  0  0  0  0  0  0
    5.7678    1.6123    0.0785 O   0  0  0  0  0  0  0  0  0  0  0  0
   -2.1669   -0.4432   -0.1004 N   0  0  0  0  0  0  0  0  0  0  0  0
   -0.4173   -1.9962   -0.0937 N   0  0  0  0  0  0  0  0  0  0  0  0
    0.0527    0.3130   -0.0417 N   0  0  0  0  0  0  0  0  0  0  0  0
    2.2886    1.0131    0.0160 N   0  0  0  0  0  0  0  0  0  0  0  0
    3.1791   -1.6525   -0.0153 N   0  0  0  0  0  0  0  0  0  0  0  0
    4.0164    3.0925    0.0881 N   0  0  0  0  0  0  0  0  0  0  0  0
   -2.7290    0.8720   -0.0879 C   0  0  0  0  0  0  0  0  0  0  0  0
   -0.8147   -0.6614   -0.0770 C   0  0  0  0  0  0  0  0  0  0  0  0
   -4.2310    0.8034   -0.0829 C   0  0  0  0  0  0  0  0  0  0  0  0
    1.8737   -1.3207   -0.0354 C   0  0  0  0  0  0  0  0  0  0  0  0
    1.4171   -0.0161   -0.0205 C   0  0  0  0  0  0  0  0  0  0  0  0
    0.9025   -2.4185   -0.0749 C   0  0  0  0  0  0  0  0  0  0  0  0
   -5.1975    1.2883   -0.9332 C   0  0  0  0  0  0  0  0  0  0  0  0
    3.5999    0.6924    0.0363 C   0  0  0  0  0  0  0  0  0  0  0  0
    4.0366   -0.6151    0.0209 C   0  0  0  0  0  0  0  0  0  0  0  0
   -6.4398    0.8933   -0.3821 C   0  0  0  0  0  0  0  0  0  0  0  0
   -6.1439    0.1949    0.7656 C   0  0  0  0  0  0  0  0  0  0  0  0
    4.5364    1.7997    0.0745 C   0  0  0  0  0  0  0  0  0  0  0  0
   -2.3978    1.4353   -0.9681 H   0  0  0  0  0  0  0  0  0  0  0  0
   -2.4048    1.4205    0.8044 H   0  0  0  0  0  0  0  0  0  0  0  0
   -2.7953   -1.2413   -0.1311 H   0  0  0  0  0  0  0  0  0  0  0  0
   -1.1410   -2.7084   -0.1216 H   0  0  0  0  0  0  0  0  0  0  0  0
   -5.0301    1.8556   -1.8374 H   0  0  0  0  0  0  0  0  0  0  0  0
    5.0857   -0.8862    0.0369 H   0  0  0  0  0  0  0  0  0  0  0  0
   -7.4273    1.0924   -0.7724 H   0  0  0  0  0  0  0  0  0  0  0  0
   -6.7440   -0.2968    1.5172 H   0  0  0  0  0  0  0  0  0  0  0  0
    3.0173    3.2717    0.0779 H   0  0  0  0  0  0  0  0  0  0  0  0
    4.6290    3.9010    0.1084 H   0  0  0  0  0  0  0  0  0  0  0  0
  1 12  1  0  0  0  0
  1 20  1  0  0  0  0
  2 15  2  0  0  0  0
  3 21  2  0  0  0  0
  4 10  1  0  0  0  0
  4 11  1  0  0  0  0
  4 24  1  0  0  0  0
  5 11  1  0  0  0  0
  5 15  1  0  0  0  0
  5 25  1  0  0  0  0
  6 11  2  0  0  0  0
  6 14  1  0  0  0  0
  7 14  2  0  0  0  0
  7 17  1  0  0  0  0
  8 13  2  0  0  0  0
  8 18  1  0  0  0  0
  9 21  1  0  0  0  0
  9 30  1  0  0  0  0
  9 31  1  0  0  0  0
 10 12  1  0  0  0  0
 10 22  1  0  0  0  0
 10 23  1  0  0  0  0
 12 16  2  0  0  0  0
 13 14  1  0  0  0  0
 13 15  1  0  0  0  0
 16 19  1  0  0  0  0
 16 26  1  0  0  0  0
 17 18  2  0  0  0  0
 17 21  1  0  0  0  0
 18 27  1  0  0  0  0
 19 20  2  0  0  0  0
 19 28  1  0  0  0  0
 20 29  1  0  0  0  0
M  END
> <PUBCHEM_COMPOUND_CID>
137240725

> <PUBCHEM_CONFORMER_RMSD>
0.6

> <PUBCHEM_CONFORMER_DIVERSEORDER>
1
64
101
104
86
96
15
60
67
92
34
36
76
103
87
72
102
100
94
5
97
26
99
81
80
73
82
78
68
31
19
11
17
84
106
69
71
59
38
63
33
105
65
77
52
4
46
29
30
85
53
37
25
61
79
18
20
3
83
57
6
58
43
35
16
93
44
75
12
98
62
22
32
56
90
51
54
23
55
95
48
8
40
27
91
39
41
45
50
14
9
66
28
42
21
70
49
88
7
47
13
2
24
89
74
10

> <PUBCHEM_MMFF94_PARTIAL_CHARGES>
29
1 -0.28
10 0.55
11 0.56
12 -0.04
13 0.4
14 0.49
15 0.54
16 -0.15
17 0.4
18 0.16
19 -0.15
2 -0.57
20 -0.01
21 0.54
24 0.4
25 0.37
26 0.15
27 0.15
28 0.15
29 0.15
3 -0.57
30 0.37
31 0.37
4 -0.82
5 -0.49
6 -0.63
7 -0.62
8 -0.62
9 -0.8

> <PUBCHEM_EFFECTIVE_ROTOR_COUNT>
4

> <PUBCHEM_PHARMACOPHORE_FEATURES>
11
1 1 acceptor
1 2 acceptor
1 3 acceptor
1 4 donor
1 5 donor
1 8 acceptor
1 9 donor
3 6 7 14 cation
5 1 12 16 19 20 rings
6 5 6 11 13 14 15 rings
6 7 8 13 14 17 18 rings

> <PUBCHEM_HEAVY_ATOM_COUNT>
21

> <PUBCHEM_ATOM_DEF_STEREO_COUNT>
0

> <PUBCHEM_ATOM_UDEF_STEREO_COUNT>
0

> <PUBCHEM_BOND_DEF_STEREO_COUNT>
0

> <PUBCHEM_BOND_UDEF_STEREO_COUNT>
0

> <PUBCHEM_ISOTOPIC_ATOM_COUNT>
0

> <PUBCHEM_COMPONENT_COUNT>
1

> <PUBCHEM_CACTVS_TAUTO_COUNT>
-1

> <PUBCHEM_CONFORMER_ID>
082E209500000001

> <PUBCHEM_MMFF94_ENERGY>
41.994

> <PUBCHEM_FEATURE_SELFOVERLAP>
55.913

> <PUBCHEM_SHAPE_FINGERPRINT>
10 15 18040436632834646625
10411042 1 17762336916836636558
10595046 47 18343016658848676325
10835480 77 18334570197671400197
11796584 16 12895066306332417957
12107183 9 17334502601756680329
12236239 1 17703507706268684605
12403259 415 18114460063721776741
12730499 353 18409174294033332595
12769317 202 18341884199551307480
12788726 201 17131840820220029825
13631057 29 18057315296922560007
13955234 65 18337108947585087298
14251732 16 18409168853111400979
14528608 73 18413387635839550829
146900 427 18342462525940920273
14790565 3 18338799047348931581
15183329 4 10663831750096733103
15188451 53 15430608371994704217
15342168 16 18262520411129369756
15475509 35 16298935447774167466
16079462 125 17749098956025459661
17844677 252 18268435638037704749
19427546 62 18409167735639383471
20157964 124 18410290281740919685
20645477 70 18199468775195709559
21033650 10 14836143038897197643
21049683 118 18191843812285688346
21236236 1 18340486798241204895
23402655 69 18130784585546737238
23559900 14 18120088378140817723
23845131 108 18261108612160989387
239999 70 18272093734149799030
25147074 1 18270099301708994430
2916195 48 18186799188808470473
293599 30 18411701027978686340
335352 9 18411702085194658854
33824 294 18336265643572464074
3545911 37 18408888446800909581
42630746 31 18341894052264098902
474 4 18412262839333114752
5104073 3 18334573576813390218
621550 34 18187078404378890519
6327066 14 18265613359103602052
633830 44 18343298184610913502
77188 2 17689996739620026998
8272917 22 18342177726369540790
9999458 23 18336266756496709646

> <PUBCHEM_SHAPE_MULTIPOLES>
384.68
14.33
2.74
0.7
16.16
1.15
0.01
-9.52
0.61
-4.1
-0.12
0.68
-0.06
0.54

> <PUBCHEM_SHAPE_SELFOVERLAP>
845.133

> <PUBCHEM_SHAPE_VOLUME>
206

> <PUBCHEM_COORDINATE_TYPE>
2
5
10

$$$$
